[TITLE]
;;Project Title/Notes

[OPTIONS]
;;Option             Value
FLOW_UNITS           CFS
INFILTRATION         GREEN_AMPT
FLOW_ROUTING         DYNWAVE
LINK_OFFSETS         DEPTH
MIN_SLOPE            0
ALLOW_PONDING        YES
SKIP_STEADY_STATE    NO

START_DATE           01/01/2016
START_TIME           00:00:00
REPORT_START_DATE    01/01/2016
REPORT_START_TIME    00:00:00
END_DATE             01/02/2016
END_TIME             06:00:00
SWEEP_START          01/01
SWEEP_END            12/31
DRY_DAYS             0
REPORT_STEP          00:05:00
WET_STEP             00:05:00
DRY_STEP             00:05:00
ROUTING_STEP         0.5

INERTIAL_DAMPING     FULL
NORMAL_FLOW_LIMITED  BOTH
FORCE_MAIN_EQUATION  H-W
VARIABLE_STEP        0.75
LENGTHENING_STEP     0
MIN_SURFAREA         1
MAX_TRIALS           8
HEAD_TOLERANCE       0.08
SYS_FLOW_TOL         5
LAT_FLOW_TOL         5
MINIMUM_STEP         0.5
THREADS              4

[EVAPORATION]
;;Data Source    Parameters
;;-------------- ----------------
MONTHLY          .06    .08    .11    .15    .17    .19    0.19   .18    .15    .11    .08    .06   
DRY_ONLY         NO

[RAINGAGES]
;;Name           Format    Interval SCF      Source    
;;-------------- --------- ------ ------ ----------
BalancedStorm_100Yr_24Hr CUMULATIVE 0:05     1.0      TIMESERIES BalancedStorm_100Yr_24Hr
TypeB_24hr_Cumulative CUMULATIVE 0:05     1.0      TIMESERIES TypeB_24hr_Cumulative
TypeB_6hr_Cumulative CUMULATIVE 0:05     1.0      TIMESERIES TypeB_6hr_Cumulative

[SUBCATCHMENTS]
;;Name           Rain Gage        Outlet           Area     %Imperv  Width    %Slope   CurbLen  SnowPack        
;;-------------- ---------------- ---------------- -------- -------- -------- -------- -------- ----------------
CarE4004         BalancedStorm_100Yr_24Hr J30              1.519156477937 51.97    192.394  1.595    0                        
CarE4006         BalancedStorm_100Yr_24Hr BMP-MU-4006-BI-FU 7.902310028821 49.661   425.479  5.092    0                        

[SUBAREAS]
;;Subcatchment   N-Imperv   N-Perv     S-Imperv   S-Perv     PctZero    RouteTo    PctRouted 
;;-------------- ---------- ---------- ---------- ---------- ---------- ---------- ----------
CarE4004         0.018      0.047      0.05       0.1        25         OUTLET    
CarE4006         0.018      0.049      0.05       0.1        25         OUTLET    

[INFILTRATION]
;;Subcatchment   Suction    Ksat       IMD       
;;-------------- ---------- ---------- ----------
CarE4004         3.5        0.13       0.347     
CarE4006         3.5        0.13       0.347     

[LID_CONTROLS]
;;Name           Type/Layer Parameters
;;-------------- ---------- ----------
BioRetention_SD_Distributed BC
BioRetention_SD_Distributed SURFACE    9          0.0        0          0          5         
BioRetention_SD_Distributed SOIL       24         .40        0.2        0.1        5          5          1.5       
BioRetention_SD_Distributed STORAGE    30         .67        0.5        0         
BioRetention_SD_Distributed DRAIN      .2         0.5        6          6         

BioRetention_SD_Regional BC
BioRetention_SD_Regional SURFACE    12         0.0        0          0          5         
BioRetention_SD_Regional SOIL       24         .4         .2         0.1        5          5          1.5       
BioRetention_SD_Regional STORAGE    36         .67        0.5        0         
BioRetention_SD_Regional DRAIN      .2         0.5        6          6         

[LID_USAGE]
;;Subcatchment   LID Process      Number  Area       Width      InitSat    FromImp    ToPerv     RptFile                  DrainTo         
;;-------------- ---------------- ------- ---------- ---------- ---------- ---------- ---------- ------------------------ ----------------

[JUNCTIONS]
;;Name           Elevation  MaxDepth   InitDepth  SurDepth   Aponded   
;;-------------- ---------- ---------- ---------- ---------- ----------
;OUT:240SW CUL DE SAC & WILLOW CREEK RD
569              462.57     22.43      0          0          0         
;LUG: 731' FR BUSINESSPK ON WILLOW CREEK
574              473.98     11.731     0          0          0         
;HW:674' FR BUSINESSPK ON WILLOW CREEK RD
577              478.412    31.588     0          0          0         
;LUG: 717' FR BUSINESSPK ON WILLOW CREEK
580              475.392    11.76      0          0          0         
;HEADWALL: 9820 WILLOW CREEK RD
581              466.27     23.73      0          0          0         
;HW: 442' FR OLD GROVE ON BUSINESSPK AV
582              500.08     6.207      0          0          0         
;LUG: 683' FR BUSINESSPK ON WILLOW CREEK
593              477.55     12.52      0          0          0         
;OUTLET: 9747 BUSINESSPARK AV
599              496        24         0          0          0         
;OUT:753' FR BUSINESSPARK ON WILLOW CREEK
603              469        13.774     0          0          0         
1327             455        45         0          0          0         
1331             456        24         0          0          0         
;STREET
J30              509.477    0          0          0          0         

[OUTFALLS]
;;Name           Elevation  Type       Stage Data       Gated    Route To        
;;-------------- ---------- ---------- ---------------- -------- ----------------
1328             454        FREE                        NO                       
Outfall-TR-DD-4006 0          FREE                        NO                       

[STORAGE]
;;Name           Elev.    MaxDepth   InitDepth  Shape      Curve Name/Params            N/A      Fevap    Psi      Ksat     IMD     
;;-------------- -------- ---------- ----------- ---------- ---------------------------- -------- --------          -------- --------
BMP-MU-4006-BI-FU 498      10         0          TABULAR    StorageBMP_4006              0        0       

[CONDUITS]
;;Name           From Node        To Node          Length     Roughness  InOffset   OutOffset  InitFlow   MaxFlow   
;;-------------- ---------------- ---------------- ---------- ---------- ---------- ---------- ---------- ----------
;RCP
C1812            593              580              72         0.013      0          0          0          0         
;RCP
C1813            581              569              361.76     0.013      0          0          0          0         
;RCP
C1814            582              599              108        0.013      0          0          0          0         
;RCP
C1816            574              603              37         0.013      0          0          0          0         
;RCP
C1819            577              593              33         0.013      0          0          0          0         
;RCP
C1823            580              574              30         0.013      0          0          0          0         
C2673            569              1331             190.42     0          0          0          0          0         
C2677            603              581              23.91      0.013      0          0          0          0         
C2708            1331             1327             42.92      0          0          0          0          0         
C2709            1327             1328             37.81      0          0          0          0          0         
;EARTH
C2749            599              577              509.54     0          0          0          0          0         

[WEIRS]
;;Name           From Node        To Node          Type         CrestHt    Qcoeff     Gated    EndCon   EndCoeff   Surcharge  RoadWidth  RoadSurf  
;;-------------- ---------------- ---------------- ------------ ---------- ---------- -------- -------- ---------- ---------- ---------- ----------
W-4006           BMP-MU-4006-BI-FU 599              TRANSVERSE   1.8        3.33       NO       0        0          NO        

[OUTLETS]
;;Name           From Node        To Node          Offset     Type            QTable/Qcoeff    Qexpon     Gated   
;;-------------- ---------------- ---------------- ---------- --------------- ---------------- ---------- --------
INF-4006         BMP-MU-4006-BI-FU Outfall-TR-DD-4006 0          TABULAR/DEPTH   INF-4006_Curve              NO      
;ASSUMED FROM GOOGLE EARTH
OL17             J30              582              0          TABULAR/DEPTH   SIS_4                       NO      
TR-DD-4006       BMP-MU-4006-BI-FU 599              0.2        TABULAR/DEPTH   TR-DD-4006_Curve            NO      

[XSECTIONS]
;;Link           Shape        Geom1            Geom2      Geom3      Geom4      Barrels    Culvert   
;;-------------- ------------ ---------------- ---------- ---------- ---------- ---------- ----------
C1812            CIRCULAR     2                0          0          0          1                    
C1813            CIRCULAR     4                0          0          0          1                    
C1814            CIRCULAR     1.5              0          0          0          1                    
C1816            CIRCULAR     2                0          0          0          1                    
C1819            CIRCULAR     2                0          0          0          1                    
C1823            CIRCULAR     2                0          0          0          1                    
C2673            IRREGULAR    I-15_WillowCreekRdDitchUS 0          0          0          1                    
C2677            CIRCULAR     2                0          0          0          1                    
C2708            IRREGULAR    I-15_WillowCreekRdDitchUS 0          0          0          1                    
C2709            IRREGULAR    OldGroveRdConfluence 0          0          0          1                    
C2749            IRREGULAR    WillowCreekW/OBusinessparkSOUTH 0          0          0          1                    
W-4006           RECT_OPEN    10               10         0          0         

[TRANSECTS]
;;Transect Data in HEC-2 format
;
;Transect created from transect line: 302
NC 0.01     0.01     0.01    
X1 158               91       0        0        0.0      0.0      0.0      0.0      0.0     
GR 545.345  0        545.345  5        544.853  6        544.853  7        544.618  8       
GR 544.618  11       544.148  12       544.148  15       543.898  16       543.898  18      
GR 543.409  19       543.409  23       542.826  24       542.12   25       542.12   31      
GR 540.748  32       540.748  37       540.01   38       540.01   39       539.515  40      
GR 539.515  43       538.829  44       538.829  47       538.464  48       538.464  50      
GR 537.862  51       537.862  55       537.541  56       536.943  57       536.943  63      
GR 536.055  64       536.055  69       535.419  70       535.419  71       535.113  72      
GR 535.113  75       534.481  76       534.481  79       534.263  80       534.263  82      
GR 533.997  83       533.997  87       533.941  88       534.021  89       534.021  95      
GR 534.275  96       534.275  101      534.432  102      534.432  103      534.482  104     
GR 534.482  107      534.527  108      534.527  111      534.511  112      534.511  114     
GR 534.42   115      534.42   119      534.367  120      534.196  121      534.196  127     
GR 534.026  128      534.026  133      533.969  134      533.969  135      534.08   136     
GR 534.08   139      534.281  140      534.281  143      534.406  144      534.406  146     
GR 534.83   147      534.83   151      534.698  152      536.046  153      536.046  159     
GR 537.8    160      537.8    165      539.038  166      539.038  167      539.246  168     
GR 539.246  172      539.555  173      539.555  175      539.854  176      539.854  178     
GR 539.931  179      539.931  183      540.242  184      540.16   185      540.16   191     
GR 540.265  192     
;
;Transect created from transect line: 304
NC 0.01     0.01     0.01    
X1 160               81       31       136      0.0      0.0      0.0      0.0      0.0     
GR 552.773  0        552.773  1        552.467  2        552.467  6        552.106  7       
GR 552.106  11       551.783  12       551.783  16       551.39   17       551.39   21      
GR 551.056  22       551.056  26       550.811  27       550.811  31       550.656  32      
GR 550.656  36       550.521  37       550.521  41       550.352  42       550.352  46      
GR 550.132  47       550.132  51       550.015  52       550.015  56       549.873  57      
GR 549.873  61       549.56   62       549.56   66       549.187  67       549.187  71      
GR 548.718  72       548.718  76       548.252  77       548.252  81       547.931  82      
GR 547.931  86       547.672  87       547.672  91       547.46   92       547.46   96      
GR 547.733  97       547.733  101      548.427  102      548.427  106      549.502  107     
GR 549.502  111      549.736  112      549.736  116      549.98   117      549.98   121     
GR 550.238  122      550.238  126      550.487  127      550.487  131      550.733  132     
GR 550.733  136      550.963  137      550.963  141      551.157  142      551.157  146     
GR 551.321  147      551.321  151      551.456  152      551.456  156      551.576  157     
GR 551.576  161      551.671  162      551.671  166      551.742  167      551.742  171     
GR 551.793  172      551.793  176      551.831  177      551.831  181      551.838  182     
GR 551.838  186      551.865  187      551.865  191      551.979  192      551.979  196     
GR 552.019  197     
;
;Transect created from transect line: 305
NC 0.01     0.01     0.01    
X1 161               83       14.597   120.719  0.0      0.0      0.0      0.0      0.0     
GR 568.844  0        568.844  2        568.657  3        568.657  6        568.702  7       
GR 568.702  10       568.355  11       568.355  12       568.05   13       568.05   14.597  
GR 568.05   18       566.445  19       566.445  24       565.691  25       565.691  27      
GR 564.499  28       564.499  31       563.905  32       563.905  35       562.897  36      
GR 562.897  37       562.29   38       562.29   43       561.142  44       561.142  49      
GR 560.682  50       560.682  52       560.278  53       560.278  56       559.923  57      
GR 559.923  60       559.493  61       559.493  62       559.161  63       559.161  68      
GR 558.366  69       558.366  74       557.869  75       557.869  77       557.328  78      
GR 557.328  81       556.322  82       556.322  85       555.486  86       555.486  87      
GR 554.119  88       554.119  93       552.336  94       552.336  99       551.962  100     
GR 551.962  102      551.752  103      551.752  106      551.734  107      551.734  110     
GR 551.709  111      551.709  112      551.846  113      551.846  118      552.112  119     
GR 552.112  120.719  552.112  124      552.364  125      552.364  127      552.417  128     
GR 552.417  131      552.637  132      552.637  135      552.7    136      552.7    137     
GR 552.871  138      552.871  143      553.116  144      553.116  149      553.299  150     
GR 553.299  152      553.374  153      553.374  156      553.584  157      553.584  160     
GR 553.569  161      553.569  162      553.724  163     
;
;Transect created from transect line: 306
NC 0.01     0.01     0.01    
X1 162               61       14.653   90.613   0.0      0.0      0.0      0.0      0.0     
GR 569.08   0        569.08   1        569.018  2        569.018  6        568.919  7       
GR 568.919  8        568.674  9        568.674  14       568.201  14.653   568.201  15      
GR 567.646  16       567.646  21       565.591  22       565.591  28       563.361  29      
GR 563.361  35       562.623  36       561.68   37       561.68   42       561.13   43      
GR 560.449  44       560.449  49       559.78   50       559.064  51       559.064  56      
GR 558.268  57       557.322  58       557.322  63       556.443  64       556.443  65      
GR 555.288  66       555.288  70       554.512  71       554.512  72       554.019  73      
GR 554.019  77       554.269  78       554.269  79       554.865  80       554.865  83      
GR 555.591  84       555.591  86       556.107  87       556.107  90.613   556.564  91      
GR 556.564  94       556.775  95       556.775  97       557.003  98       557.003  101     
GR 557.097  102      557.097  104      557.359  105      557.359  108      557.551  109     
GR 557.551  111      557.936  112      557.936  116      558.135  117      558.135  118     
GR 558.446  119     
;
;Transect created from transect line: 307
NC 0.01     0.01     0.01    
X1 163               114      51.837   121.565  0.0      0.0      0.0      0.0      0.0     
GR 571.565  0        571.565  1        571.464  2        571.464  5        571.062  6       
GR 571.062  8        571.233  9        571.233  12       570.898  13       570.898  15      
GR 571.113  16       571.113  19       570.808  20       570.808  22       570.99   23      
GR 570.99   26       570.727  27       570.727  29       570.862  30       570.862  33      
GR 570.625  34       570.625  36       570.732  37       570.732  40       570.495  41      
GR 570.495  43       570.488  44       570.488  47       570.046  48       570.046  50      
GR 569.623  51       569.623  51.837   569.623  54       568.658  55       568.658  57      
GR 567.593  58       567.593  61       566.067  62       566.067  64       564.69   65      
GR 564.69   68       563.274  69       563.274  72       562.242  73       562.242  75      
GR 561.204  76       561.204  79       560.33   80       560.33   82       559.497  83      
GR 559.497  86       558.705  87       558.705  89       558.165  90       558.165  93      
GR 558.004  94       558.004  97       558.242  98       558.242  100      558.718  101     
GR 558.718  104      559.453  105      559.453  107      560.375  108      560.375  111     
GR 561.333  112      561.333  114      562.119  115      562.119  118      562.583  119     
GR 562.583  121      563.085  121.565  563.085  125      563.15   126      563.15   128     
GR 563.499  129      563.499  132      563.355  133      563.355  135      563.632  136     
GR 563.632  139      563.409  140      563.409  142      563.626  143      563.626  146     
GR 563.469  147      563.469  149      563.786  150      563.786  153      563.576  154     
GR 563.576  156      563.941  157      563.941  160      563.632  161      563.632  163     
GR 564.017  164      564.017  167      563.756  168      563.756  171      564.113  172     
GR 564.113  174      563.807  175      563.807  178      564.016  179      564.016  181     
GR 563.729  182      563.729  185      563.834  186      563.834  188      563.864  189     
GR 563.864  192      564.171  193      564.171  196      564.219  197     
;
;Transect created from transect line: 308
NC 0.01     0.01     0.01    
X1 164               113      68.364   167.473  0.0      0.0      0.0      0.0      0.0     
GR 576.262  0        576.262  2        575.555  3        575.555  6        574.375  7       
GR 574.375  9        573.58   10       573.58   13       572.456  14       572.456  16      
GR 571.811  17       571.811  20       571.141  21       571.141  23       570.73   24      
GR 570.73   27       570.337  28       570.337  30       570.056  31       570.056  34      
GR 569.827  35       569.827  37       569.626  38       569.626  41       569.53   42      
GR 569.53   44       569.455  45       569.455  48       569.611  49       569.611  51      
GR 569.754  52       569.754  55       569.946  56       569.946  58       570.04   59      
GR 570.04   62       569.977  63       569.977  65       569.732  66       569.732  68.364  
GR 569.732  69       568.999  70       568.999  72       568.025  73       568.025  76      
GR 566.293  77       566.293  79       564.895  80       564.895  83       563.047  84      
GR 563.047  86       561.998  87       561.998  90       560.67   91       560.67   93      
GR 560.263  94       560.263  98       559.766  99       559.766  101      559.789  102     
GR 559.789  105      559.86   106      559.86   108      560.104  109      560.104  112     
GR 560.128  113      560.128  115      560.438  116      560.438  119      560.423  120     
GR 560.423  122      560.846  123      560.846  126      560.858  127      560.858  129     
GR 561.378  130      561.378  133      561.427  134      561.427  136      562.065  137     
GR 562.065  140      562.213  141      562.213  143      563.058  144      563.058  147     
GR 563.405  148      563.405  150      564.328  151      564.328  154      564.868  155     
GR 564.868  157      566.082  158      566.082  161      566.797  162      566.797  164     
GR 568.1    165      568.1    167.473  568.1    168      568.873  169      568.873  171     
GR 569.705  172      569.705  175      570      176      570      178      570.362  179     
GR 570.362  182      570.342  183      570.342  185      570.626  186      570.626  189     
GR 570.538  190      570.538  192      570.766  193     
;
;Ditch on the east side of Businesspark Drive north of Willow Creek Road
NC 0.05     0.05     0.04    
X1 BusinessparkDriveDitch  9        20       165      0.0      0.0      0.0      0.0      0.0     
GR 498.5    0        498.5    20       493      40       490.5    60       490      75      
GR 490.5    82       496      140      497      165      499      180     
;
;Averaged transect, created from transects:
;165, 166, 167, 168
NC 0.01     0.01     0.01    
X1 C2563             268      14.273   130.899  0.0      0.0      0.0      0.0      0.0     
GR 566.468  4.304    566.353  4.795    566.325  4.883    566.254  5.019    566.031  5.795   
GR 566.013  5.883    566.013  6.304    565.722  7.304    565.722  9.795    565.714  9.883   
GR 565.658  10.019   565.142  10.795   565.091  10.883   565.057  11.019   565.057  11.304  
GR 564.848  12.304   564.848  13.019   564.664  14.019   564.664  14.273   564.664  14.832  
GR 564.66   14.879   564.609  14.981   563.902  15.873   563.89   15.905   563.882  15.931  
GR 563.882  16.286   563.675  17.278   563.675  19.85    563.52   20.193   563.249  20.681  
GR 563.114  20.844   562.961  21.243   562.949  21.265   562.776  21.631   562.657  22.235  
GR 562.657  24.481   562.572  24.82    562.169  25.431   562.118  25.554   561.98   25.814  
GR 561.935  26.201   561.875  26.38    561.729  26.626   561.458  27.192   561.422  27.33   
GR 561.422  29.791   561.126  30.785   561.126  30.915   561.081  31.13    561.07   31.158  
GR 560.563  31.987   560.526  32.08    560.512  32.149   560.512  34.761   560.479  34.93   
GR 560.132  35.755   560.104  35.88    560.104  36.115   560.081  36.276   559.875  36.83   
GR 559.73   37.106   559.639  37.348   559.574  37.779   559.574  39.732   559.446  40.726  
GR 559.446  41.072   559.384  41.579   559.371  41.636   559.167  42.063   559.001  42.529  
GR 558.959  42.709   558.959  44.702   558.887  45.379   558.799  45.696   558.741  46.029  
GR 558.659  46.329   558.592  46.997   558.585  47.02    558.531  47.279   558.306  48.069  
GR 558.294  48.229   558.294  49.673   558.166  50.667   558.166  50.986   558.092  51.977  
GR 558.092  52.358   557.971  52.978   557.846  53.43    557.807  53.928   557.807  54.643  
GR 557.664  55.637   557.664  55.828   557.647  55.943   557.496  56.778   557.49   56.934  
GR 557.49   57.719   557.488  57.728   557.243  58.678   557.223  58.791   557.223  59.614  
GR 557.062  60.608   557.062  60.9     556.993  61.892   556.993  63.08    556.959  63.427  
GR 556.838  64.152   556.822  64.377   556.822  64.584   556.64   65.579   556.64   65.857  
GR 556.581  66.277   556.446  66.849   556.409  67.227   556.409  68.177   556.398  68.44   
GR 556.308  69.127   556.274  69.513   556.274  69.555   556.061  70.549   556.061  70.814  
GR 555.918  71.806   555.918  73.801   555.912  73.876   555.836  74.526   555.749  74.826  
GR 555.737  74.873   555.627  75.52    555.627  75.771   555.514  76.726   555.507  76.763  
GR 555.444  77.676   555.444  79.162   555.42   79.496   555.405  79.576   555.26   80.234  
GR 555.223  80.49    555.222  80.526   555.222  80.729   555.15   81.72    555.15   84.326  
GR 555.148  84.467   555.141  84.523   554.998  85.276   554.964  85.461   554.955  85.595  
GR 554.955  85.686   554.922  86.677   554.922  88.125   554.862  89.075   554.862  89.437  
GR 554.844  89.884   554.83   90.025   554.792  90.431   554.782  90.643   554.761  90.956  
GR 554.761  90.975   554.752  91.634   554.752  94.408   554.758  94.775   554.78   95.245  
GR 554.779  95.402   554.775  95.6     554.772  95.725   554.74   96.317   554.739  96.591  
GR 554.739  98.574   554.703  99.378   554.708  99.524   554.775  100.372  554.775  100.557 
GR 554.776  100.605  554.775  101.424  554.774  101.548  554.772  101.677  554.772  104.349 
GR 554.872  105.224  554.888  105.343  554.893  105.514  554.91   105.966  554.925  106.174 
GR 554.94   106.505  554.959  107.038  554.959  109.024  554.954  109.319  555.037  109.973 
GR 555.087  110.313  555.087  110.471  555.097  110.923  555.163  111.327  555.211  111.462 
GR 555.346  111.873  555.447  112.399  555.447  114.29   555.607  115.284  555.607  115.428 
GR 555.698  116.42   555.698  116.623  555.709  116.688  556.115  117.573  556.166  117.76  
GR 556.166  119.26   556.21   119.473  556.373  120.254  556.372  120.385  556.374  120.423 
GR 556.428  121.372  556.429  121.377  556.572  122.049  556.71   122.322  556.94   123.121 
GR 556.94   124.231  557.189  125.225  557.189  125.342  557.484  126.334  557.484  127.072 
GR 557.565  127.409  557.833  128.022  557.925  128.482  557.925  129.201  558.109  129.922 
GR 558.166  130.195  558.161  130.299  558.552  130.872  558.572  130.899  558.572  131.87  
GR 558.737  132.644  558.816  132.87   558.922  133.644  558.922  134.191  559.112  135.191 
GR 559.112  135.294  559.541  136.294  559.541  137.644  559.559  137.87   559.724  138.644 
GR 559.754  138.87   559.754  139.191  559.872  140.191  559.872  140.294  560.17   141.294 
GR 560.17   141.87   560.15   142.644  560.153  142.87   560.187  143.644  560.187  143.87  
GR 560.225  144.191  560.367  144.87   560.395  145.191  560.395  145.294  560.581  146.294 
GR 560.581  147.644  560.601  148.644  560.601  148.87   560.634  149.191  560.728  149.87  
GR 560.738  150.191  560.738  150.294  560.834  151.294  560.834  152.644  560.836  152.87  
GR 560.788  153.644  560.772  153.87   560.772  154.191  560.778  154.87   560.81   155.191 
GR 560.819  155.294  560.89   155.87   560.904  156.294 
;
;Averaged transect, created from transects:
;169, 170
NC 0.01     0.01     0.01    
X1 C2564             177      12.019   180.262  0.0      0.0      0.0      0.0      0.0     
GR 582.101  1.513    582.101  2.513    581.031  3.487    580.981  3.513    580.185  4.487   
GR 580.185  5.513    580.198  6.513    580.198  7.487    580.234  8.487    580.234  9.487   
GR 579.729  10.487   579.729  11.513   579.751  12.019   579.751  13.306   578.7    14.167  
GR 578.7    15.89    578.723  16.152   578.621  16.752   578.468  17.344   578.468  19.727  
GR 578.626  20.919   578.626  21.059   578.696  21.92    578.696  22.11    578.506  23.302  
GR 578.506  23.643   577.699  24.505   577.699  25.366   577.825  26.227   577.825  29.261  
GR 577.586  30.452   577.586  30.534   577.558  31.396   577.558  32.836   577.715  33.98   
GR 577.692  34.027   577.19   34.842   577.152  35.703   577.152  36.411   576.696  37.603  
GR 576.696  40.01    576.706  40.872   576.706  42.369   576.104  43.561   576.104  44.317  
GR 575.873  44.753   575.664  45.179   575.696  45.944   575.696  49.486   575.697  49.52   
GR 575.4    50.347   575.252  50.711   575.252  53.793   574.83   54.654   574.83   56.67   
GR 574.45   57.862   574.511  58.962   574.525  59.053   574.592  59.823   574.592  62.628  
GR 574.432  63.269   574.372  63.82    574.416  64.13    574.051  64.992   574.051  68.437  
GR 574.152  69.299   574.152  69.779   574.038  70.97    574.038  72.744   574.074  73.606  
GR 574.074  74.467   573.633  75.329   573.633  76.929   573.529  78.12    573.528  82.22   
GR 573.511  82.887   573.521  83.081   573.59   83.943   573.517  84.079   573.071  84.804  
GR 573.071  87.389   573.004  88.25    573.004  90.038   572.856  91.229   572.856  92.557  
GR 572.806  93.419   572.806  94.28    572.404  94.804   572.177  95.141   572.256  95.996  
GR 572.256  96.864   572.239  97.188   572.074  97.726   571.908  98.379   571.908  103.146 
GR 571.408  104.338  571.408  104.617  570.839  105.479  570.839  106.34   570.906  107.201 
GR 570.906  107.913  571.105  109.105  571.105  110.297  570.64   111.488  570.64   111.509 
GR 570.668  112.37   570.668  114.954  570.149  115.816  570.219  116.677  570.219  117.447 
GR 570.245  118.638  570.245  120.984  570.25   121.022  570.366  121.846  570.368  122.214 
GR 570.368  123.405  570.619  124.43   570.594  124.597  570.319  125.291  570.364  126.153 
GR 570.364  130.46   570.37   130.555  570.655  131.321  570.784  131.747  570.784  132.939 
GR 570.7    134.131  570.7    134.767  570.762  135.628  570.762  137.706  570.982  138.897 
GR 570.982  139.936  571.2    140.797  571.2    143.664  571.283  144.243  571.526  144.856 
GR 571.589  145.104  571.721  145.966  571.721  146.048  571.642  147.239  571.642  149.411 
GR 571.878  150.273  571.878  150.814  572.063  152.006  572.063  153.718  572.244  154.58  
GR 572.5    155.441  572.5    157.965  572.885  158.887  573.063  159.156  573.206  159.748 
GR 573.206  163.194  573.409  163.923  573.524  164.055  574.039  164.917  574.237  165.115 
GR 574.506  165.778  574.506  168.363  574.736  169.224  574.736  171.073  575.806  172.265 
GR 575.806  173.531  576.049  174.393  576.049  175.254  576.536  176.115  576.536  177.838 
GR 576.677  178.224  577.239  178.7    577.822  179.415  577.822  180.262  577.822  183.449 